snemQLD.m
%% MATPOWER Case Format : Version 2
function mpc = NEM
mpc.version = '2';

%%-----  Power Flow Data  -----%%
%% system MVA base
mpc.baseMVA = 100;
%% bus data
%    bus_i    type    Pd    Qd    Gs    Bs    area    Vm    Va    baseKV    zone    Vmax    Vmin
mpc.bus = [
	211	3	85.8045954265578	0.0	0.0	0.0	3	1.037559999998999	13.2154742630522	110.0	1	1.1	0.9				
	349	1	21.3296455351594	2.4644022689636795	0.0	0.0	3	1.014141303227383	10.845996054702626	66.0	1	1.1	0.9				
	489	1	14.443465738655197	3.79346401580512	0.0	0.0	3	1.012603139594169	10.794745528754229	66.0	1	1.1	0.9				
	585	1	0.0	0.0	0.0	0.0	3	1.0149997017634873	10.964102466736241	66.0	1	1.1	0.9				
	587	1	1.01595722773056	0.355317011995241	0.0	0.0	3	1.0138020832599828	10.89059662947726	66.0	1	1.1	0.9				
	588	1	19.468998386882973	3.4559436402873605	0.0	0.0	3	1.0113702659988861	10.712145596960088	66.0	1	1.1	0.9				
	636	1	5.71820972677711	-2.3636429420402703	0.0	19.612628245726196	3	1.019210968200499	11.299319497626866	66.0	1	1.1	0.9				
	987	1	0.0	0.0	0.0	0.0	3	1.0282871735666343	46.08355026069497	132.0	1	1.1	0.9				
	988	1	0.0	0.0	0.0	0.0	3	1.0234231320826803	41.236166787908765	132.0	1	1.1	0.9				
	989	1	0.0	0.0	0.0	0.0	3	1.0261713203117497	39.582501183727274	132.0	1	1.1	0.9				
	990	1	0.0	0.0	0.0	0.0	3	1.0322370951523268	39.1058678952789	33.0	1	1.1	0.9				
	991	1	9.73569056401728	2.3500431913510003	0.0	0.0	3	1.058231174848328	30.892770072086158	66.0	1	1.1	0.9				
	992	1	4.62348153453078	7.25765923178541	0.0	0.0	3	1.053367318900486	30.74160939633716	66.0	1	1.1	0.9				
	993	1	8.780934178645722	-5.299832362078181	0.0	0.0	3	1.0441408451820258	27.33808439690175	66.0	1	1.1	0.9				
	994	1	24.827333741672504	5.52732802267294	0.0	5.08659301069565	3	1.0214337658242008	31.378441985685576	33.0	1	1.1	0.9				
	995	1	0.0	0.0	0.0	0.0	3	1.0273681967527843	50.862315024440974	6.6	1	1.1	0.9				
	996	1	0.0	0.0	0.0	0.0	3	1.0285494084164108	29.736628081713572	132.0	1	1.1	0.9				
	997	1	0.0	0.0	0.0	0.0	3	1.0287438481778666	30.087152145654382	132.0	1	1.1	0.9				
	998	1	37.9361193551301	5.13911492054295	0.0	0.0	3	0.9851322465646518	28.067831395350492	33.0	1	1.1	0.9				
	999	1	5.58108820901439	2.29674421937484	0.0	0.0	3	1.0128722579028748	28.2181641175136	11.0	1	1.1	0.9				
	1000	1	7.04322950319638	2.45981465268456	0.0	0.0	3	1.0098141077042837	27.219567463397823	11.0	1	1.1	0.9				
	1001	1	0.0	0.0	0.0	0.0	3	1.0362322164577387	29.58541050586412	110.0	1	1.1	0.9				
	1002	1	0.0	0.0	0.0	0.0	3	1.022008081596611	29.967549981339342	110.0	1	1.1	0.9				
	1003	1	15.3900378169748	11.8335031690924	0.0	0.0	3	1.0982325732793246	27.55866654978666	33.0	1	1.1	0.9				
	1004	1	0.0	0.0	0.0	0.0	3	1.0334431018213854	21.51018752178007	110.0	1	1.1	0.9				
	1005	1	0.0	0.0	0.0	0.0	3	1.03343021346365	21.553732370535265	110.0	1	1.1	0.9				
	1006	1	7.668817096640631	-0.295914825022407	0.0	0.0	3	1.0306953091985804	21.1605443374324	110.0	1	1.1	0.9				
	1007	1	79.8823462888885	36.8842467795345	0.0	19.640499741388506	3	1.05780646787765	18.566805980133164	33.0	1	1.1	0.9				
	1008	1	0.0	0.0	0.0	0.0	3	1.0362762779983565	33.18071910043011	132.0	1	1.1	0.9				
	1009	1	7.07437783976272	1.35382590689184	0.0	0.0	3	1.0699950037611874	31.833725523885605	66.0	1	1.1	0.9				
	1010	1	24.9157356170635	11.467470581965571	0.0	0.0	3	1.0161290726485575	38.77338595200145	132.0	1	1.1	0.9				
	1011	1	0.0	0.0	0.0	0.0	3	1.0291653604590214	37.71628304096222	132.0	1	1.1	0.9				
	1012	1	0.0	0.0	0.0	0.0	3	0.9777677243444283	37.19415753199584	110.0	1	1.1	0.9				
	1013	1	16.1757864933852	3.3093469356075897	0.0	0.0	3	0.998827352289727	36.31578969755352	33.0	1	1.1	0.9				
	1014	1	0.0	0.0	0.0	0.0	3	1.0409178816197138	25.86040380331808	132.0	1	1.1	0.9				
	1015	1	0.0	0.0	0.0	0.0	3	1.0407960406927146	25.85140219465988	132.0	1	1.1	0.9				
	1016	1	33.430511216844096	1.8258550293195972	0.0	10.094007574953102	3	1.020814559518629	24.334500585634615	33.0	1	1.1	0.9				
	1017	1	0.0	0.0	0.0	0.0	3	1.023512746266591	50.30266707688176	132.0	1	1.1	0.9				
	1018	1	0.0	0.0	0.0	0.0	3	1.0235134583819265	50.302670306234646	132.0	1	1.1	0.9				
	1019	1	14.062288434931599	-2.45112358235521	0.0	0.0	3	1.0712385458150524	49.85767177195825	66.0	1	1.1	0.9				
	1020	1	1.81125079850936	-2.60214330289713	0.0	0.0	3	1.0329942863689179	51.04762622659517	6.6	1	1.1	0.9				
	1021	1	1.04031343215331	-0.9063463668111709	0.0	0.0	3	1.0208263589539452	37.05112794839658	132.0	1	1.1	0.9				
	1022	1	68.7480104352174	12.9866376084909	0.0	0.0	3	1.0210297755820559	34.479768190325096	66.0	1	1.1	0.9				
	1023	1	0.0	0.0	0.0	0.0	3	1.0220752140878342	50.26784636733788	132.0	1	1.1	0.9				
	1024	1	0.0	0.0	0.0	0.0	3	1.0222312711378334	50.27354685940474	132.0	1	1.1	0.9				
	1025	1	54.0118393974642	33.022617220802196	0.0	0.0	3	0.9973622527802433	47.216901067399974	11.0	1	1.1	0.9				
	1026	1	3.1275597804050905	-0.457766438181046	0.0	0.0	3	1.0247244491950955	56.1104667067821	132.0	1	1.1	0.9				
	1027	1	0.0	0.0	0.0	0.0	3	1.0073562381917869	56.1104667067821	11.8	1	1.1	0.9				
	1028	1	0.0	0.0	0.0	0.0	3	1.0073562381917869	56.1104667067821	11.8	1	1.1	0.9				
	1029	1	0.0	0.0	0.0	0.0	3	1.0073562381917867	56.1104667067821	11.8	1	1.1	0.9				
	1030	1	0.0	0.0	0.0	0.0	3	1.0073562381917867	56.1104667067821	11.8	1	1.1	0.9				
	1031	1	0.0	0.0	0.0	0.0	3	1.0073162447752728	55.38805388349321	132.0	1	1.1	0.9				
	1032	1	0.0	0.0	0.0	0.0	3	1.0056756699759857	55.39396262541735	132.0	1	1.1	0.9				
	1033	1	62.21852749079271	22.9226375778034	0.0	0.0	3	1.0642778206504602	53.48550234095815	66.0	1	1.1	0.9				
	1034	1	0.0	0.0	0.0	0.0	3	1.0466491061567553	19.09796489580373	110.0	1	1.1	0.9				
	1035	1	45.2972273315787	12.83239761444702	0.0	19.8922508135438	3	1.013271040155133	16.973458425856926	33.0	1	1.1	0.9				
	1036	1	0.0	0.0	0.0	0.0	3	1.023076451051088	54.969504104139894	132.0	1	1.1	0.9				
	1037	1	0.0	0.0	0.0	0.0	3	1.0221345914566107	55.70880004685523	132.0	1	1.1	0.9				
	1038	1	0.0	0.0	0.0	0.0	3	1.0230787838368423	54.96943254869839	132.0	1	1.1	0.9				
	1039	1	17.7377452820672	-0.8120322605654601	0.0	0.0	3	1.0301846074334302	55.0881714088646	66.0	1	1.1	0.9				
	1040	1	0.0	0.0	0.0	20.35857195779679	3	1.0192653496533333	51.1049205654245	132.0	1	1.1	0.9				
	1041	1	47.7676601507822	9.02384231187385	0.0	0.0	3	1.0430153304447003	49.51434453781149	66.0	1	1.1	0.9				
	1042	1	0.0	0.0	0.0	0.0	3	1.0391352856362355	28.530746414251794	110.0	1	1.1	0.9				
	1043	1	23.836942642017902	8.62703598491233	0.0	0.0	3	1.0141494309006618	26.839988175153806	33.0	1	1.1	0.9				
	1044	1	0.0	0.0	0.0	0.0	3	1.0421221719296418	20.85785056771107	110.0	1	1.1	0.9				
	1045	1	46.575210781880806	3.59709528598431	0.0	0.0	3	0.991020863973888	18.68902230414505	33.0	1	1.1	0.9				
	1046	1	0.0	0.0	0.0	0.0	3	1.0302439658065126	50.84538117186547	132.0	1	1.1	0.9				
	1047	1	0.260013003669307	-3.3239035728246007	0.0	-8.583069842379544	3	1.0282871735666343	46.08355026069497	132.0	1	1.1	0.9				
	1048	1	61.5488392405573	4.59941439625202	0.0	0.0	3	1.0534472237633026	44.76342422354823	66.0	1	1.1	0.9				
	1049	1	0.0	0.0	0.0	-5.466385317603131	3	1.0261713203117497	39.582501183727274	132.0	1	1.1	0.9				
	1050	1	2.3649401822946	-0.29877703061956	0.0	0.0	3	1.0416503423294092	39.53463721148934	66.0	1	1.1	0.9				
	1051	1	0.0	0.0	0.0	-10.5808031294541	3	1.0234231320826803	41.236166787908765	132.0	1	1.1	0.9				
	1052	1	30.311047289708597	8.8233872045598	0.0	0.0	3	1.0498976667885105	40.32157069762732	66.0	1	1.1	0.9				
	1053	1	0.0	0.0	0.0	0.0	3	1.027111102694863	36.15472567722279	132.0	1	1.1	0.9				
	1054	1	0.0	0.0	0.0	0.0	3	1.02647070551515	36.17547456955943	132.0	1	1.1	0.9				
	1055	1	0.0	0.0	0.0	0.0	3	1.0244258515401785	40.368116672110936	132.0	1	1.1	0.9				
	1056	1	67.4622559882222	15.451166156671007	0.0	15.7340733902575	3	1.0365539984727812	38.49411061137068	33.0	1	1.1	0.9				
	1057	1	30.9270289011029	8.522199174101647	0.0	0.0	3	1.0157620788270187	37.55343574213635	66.0	1	1.1	0.9				
	1058	1	0.0	0.0	0.0	0.0	3	1.0410018726815458	25.900174097198768	132.0	1	1.1	0.9				
	1059	1	0.0	0.0	0.0	0.0	3	1.0408879994782667	25.89297003730955	132.0	1	1.1	0.9				
	1060	1	17.37223573912071	2.0510445618240634	0.0	0.0	3	1.0471862224564816	29.800889424898347	110.0	1	1.1	0.9				
	1061	1	56.633872172239194	40.263844985512996	0.0	18.573954906286698	3	1.0248388328517655	27.388425781574757	33.0	1	1.1	0.9				
	1062	1	25.806642518398863	9.84178484725765	0.0	0.0	3	1.0382428030443274	35.11788913869425	66.0	1	1.1	0.9				
	1063	1	0.0	0.0	0.0	0.0	3	1.0210072723935117	36.6755046842169	132.0	1	1.1	0.9				
	1064	1	0.0	0.0	0.0	0.0	3	1.0210850462996033	36.67468165611076	132.0	1	1.1	0.9				
	1065	1	0.0	0.0	0.0	0.0	3	1.0262771117231138	31.839221688037675	132.0	1	1.1	0.9				
	1066	1	9.526357261584142	2.6105207456925896	0.0	0.0	3	1.0573889841014106	30.094921695107413	22.0	1	1.1	0.9				
	1067	1	0.00515912280860357	0.0	0.0	0.0	3	0.9975604890416176	32.856550129209054	22.0	1	1.1	0.9				
	1068	1	0.0	0.0	0.0	0.0	3	1.0179552773110774	29.785537426044023	132.0	1	1.1	0.9				
	1069	1	21.2390310211436	5.22193309465209	0.0	0.0	3	1.008718762362722	28.0672738726132	22.0	1	1.1	0.9				
	1070	1	0.0	0.0	0.0	0.0	3	1.0216291572480152	29.557153471221447	132.0	1	1.1	0.9				
	1071	1	45.6369155925745	14.148172489705999	0.0	6.978748843073836	3	1.0114215418003107	26.873759742589737	22.0	1	1.1	0.9				
	1072	1	0.0	0.0	0.0	0.0	3	1.0195406082643819	29.254663951412606	132.0	1	1.1	0.9				
	1073	1	0.0	0.0	0.0	0.0	3	1.0229446046079897	29.711051697943393	132.0	1	1.1	0.9				
	1074	1	17.70906807249	-1.9028282424610101	0.0	0.0	3	1.0899547337967699	26.540769519659705	22.0	1	1.1	0.9				
	1075	1	18.549044800223598	-1.9804959816422298	0.0	0.0	3	1.0934675518450971	27.005625514240776	22.0	1	1.1	0.9				
	1076	1	0.0	0.0	0.0	0.0	3	1.0195647044630916	29.253960512942637	132.0	1	1.1	0.9				
	1077	1	0.0	0.0	0.0	0.0	3	1.0243789824038607	29.894294606870595	132.0	1	1.1	0.9				
	1078	1	0.0	0.0	0.0	0.0	3	1.0096354105002658	28.383102953962304	132.0	1	1.1	0.9				
	1079	1	51.3048517856447	0.9297110162096099	0.0	0.0	3	1.080758099165141	26.810514882258353	66.0	1	1.1	0.9				
	1080	1	0.0	0.0	0.0	51.7095351498574	3	1.0270790213386363	36.01983819541762	132.0	1	1.1	0.9				
	1081	1	0.0986176145495847	-1.38226408356903	0.0	0.0	3	1.0388364157162977	35.18103843101907	66.0	1	1.1	0.9				
	1082	1	0.0	0.0	0.0	19.853850904572806	3	1.040377840847361	35.16928856622912	66.0	1	1.1	0.9				
	1083	1	0.0	0.0	0.0	0.0	3	1.0312030437881015	28.647895109355577	110.0	1	1.1	0.9				
	1084	1	22.558757561094303	5.17920890124691	0.0	0.0	3	1.045338817054745	27.16282177085138	33.0	1	1.1	0.9				
	1085	1	0.0	0.0	0.0	0.0	3	1.0131882194882564	33.175266478966435	132.0	1	1.1	0.9				
	1086	1	0.0	0.0	0.0	0.0	3	1.0239193109714926	34.18445877766029	132.0	1	1.1	0.9				
	1087	1	72.6027510219411	10.985017106572899	0.0	0.0	3	1.0221353130648594	31.51125529967089	66.0	1	1.1	0.9				
	1088	1	0.0	0.0	0.0	0.0	3	1.0165628462827538	55.493483978478295	132.0	1	1.1	0.9				
	1089	1	22.5466758786639	-1.34588007259518	0.0	0.0	3	1.0250883354040532	53.95516041282079	66.0	1	1.1	0.9				
	1090	1	0.0	0.0	0.0	0.0	3	1.034483945619397	40.484265463501465	132.0	1	1.1	0.9				
	1091	2	0.0	0.0	0.0	0.0	3	1.0335699999989159	40.484312894152076	132.0	1	1.1	0.9				
	1092	1	18.3283448005316	0.650674314169446	0.0	0.0	3	1.0460443748558574	39.42180661963637	33.0	1	1.1	0.9				
	1093	1	0.0	0.0	0.0	0.0	3	1.0254645357007335	41.86319142876991	132.0	1	1.1	0.9				
	1094	1	7.181646446851831	1.6746792132735298	0.0	0.0	3	1.0125317723058707	39.51160447343799	66.0	1	1.1	0.9				
	1095	1	6.2870313187832	3.1347044809380495	0.0	0.0	3	1.0530906163877738	40.121481255090565	66.0	1	1.1	0.9				
	1096	1	0.0	0.0	0.0	0.0	3	1.014094789162514	37.76253946016015	132.0	1	1.1	0.9				
	1097	1	24.8067275092972	-0.5984451652383431	0.0	0.0	3	0.9997692200433712	36.69590587442719	66.0	1	1.1	0.9				
	1098	1	58.70961496656689	13.681620119169768	0.0	0.0	3	1.03154058816166	26.673924133979803	132.0	1	1.1	0.9				
	1099	1	0.0	0.0	0.0	0.0	3	1.0405819784753572	45.98220163443533	132.0	1	1.1	0.9				
	1100	1	12.2861720269851	0.29849594164732807	0.0	0.0	3	1.0401361050610796	45.360026567499204	66.0	1	1.1	0.9				
	1101	1	0.0	0.0	0.0	0.0	3	1.0598781221376739	47.28106369590707	132.0	1	1.1	0.9				
	1102	1	0.0	0.0	0.0	0.0	3	1.0598781226034957	47.28106370924679	132.0	1	1.1	0.9				
	1103	1	-4.56934893494523	5.906820303325768	0.0	0.0	3	1.0168997816810603	47.81992461609772	66.0	1	1.1	0.9				
	1104	1	30.0722346170119	4.050884320829811	0.0	0.0	3	1.0478871369252594	49.933103007788084	66.0	1	1.1	0.9				
	1105	1	0.0	0.0	0.0	0.0	3	1.0476543105344882	16.98490847510549	110.0	1	1.1	0.9				
	1106	1	18.59483333485271	7.6610123497149	0.0	0.0	3	1.0440626172657148	12.102941052877478	11.0	1	1.1	0.9				
	1107	1	17.34450142873451	8.71794102822826	0.0	0.0	3	1.0216631480062688	12.037024741752264	11.0	1	1.1	0.9				
	1108	1	7.051195327467939	-0.193884178765817	0.0	0.0	3	0.9833645156559851	33.97902164850284	66.0	1	1.1	0.9				
	1109	1	0.0	0.0	0.0	0.0	3	1.0489937448486064	34.583881128243604	66.0	1	1.1	0.9				
	1110	1	1.3590159784473437	0.435790841106189	0.0	0.0	3	1.071223744500036	43.760950984909876	132.0	1	1.1	0.9				
	1111	1	0.0	0.0	0.0	0.0	3	1.020524934169734	24.28639946728739	110.0	1	1.1	0.9				
	1112	1	27.349202350283598	9.1831444198072	0.0	0.0	3	1.054036452141285	21.996120475468796	33.0	1	1.1	0.9				
	1113	1	0.0	0.0	0.0	0.0	3	1.0531221628119125	22.031451908698546	110.0	1	1.1	0.9				
	1114	1	7.888747577803771	2.14984633136205	0.0	0.0	3	1.0239785000548456	19.38233548701732	11.0	1	1.1	0.9				
	1115	1	5.95127617658847	0.006979453062498941	0.0	0.0	3	1.0129236297736697	19.983145738325394	11.0	1	1.1	0.9				
	1116	1	0.0	0.0	0.0	0.0	3	1.0394117670779375	16.71453711697387	110.0	1	1.1	0.9				
	1117	1	23.17025865262	2.8409243628874403	0.0	0.0	3	1.020182914340578	7.126970803272486	11.0	1	1.1	0.9				
	1118	1	25.058154548830398	5.5447061880223405	0.0	0.0	3	1.0046679985264415	6.601461944892955	11.0	1	1.1	0.9				
	1119	1	46.1540881953276	-4.7034400108929795	0.0	0.0	3	1.012753965062048	33.02522350791254	132.0	1	1.1	0.9				
	1120	1	0.0	0.0	0.0	0.0	3	0.9880526488410198	33.02522350791254	10.5	1	1.1	0.9				
	1121	1	0.0	0.0	0.0	0.0	3	0.9880526488410201	33.02522350791254	10.5	1	1.1	0.9				
	1122	1	0.0	0.0	0.0	0.0	3	1.0224846058713932	36.77408337687087	132.0	1	1.1	0.9				
	1123	1	0.0	0.0	0.0	0.0	3	1.0224591614542113	36.78162524851417	132.0	1	1.1	0.9				
	1124	1	35.137669799740294	1.842055573573844	0.0	0.0	3	1.0376558052225275	35.41581280148306	66.0	1	1.1	0.9				
	1125	1	0.0	0.0	0.0	0.0	3	1.021341912547807	29.544513692790463	132.0	1	1.1	0.9				
	1126	1	0.0	0.0	0.0	0.0	3	1.0216232744843117	29.5352763674667	132.0	1	1.1	0.9				
	1127	1	29.795506208285698	8.59285198678589	0.0	0.0	3	0.8996097345652025	26.307351658776888	22.0	1	1.1	0.9				
	1128	1	0.0	0.0	0.0	0.0	3	1.0243493254403422	35.87903789863321	132.0	1	1.1	0.9				
	1129	1	0.0	0.0	0.0	0.0	3	1.0404618025189334	35.18306469007641	66.0	1	1.1	0.9				
	1130	1	0.0	0.0	0.0	0.0	3	0.9908514859878512	34.15214508298617	132.0	1	1.1	0.9				
	1131	1	1.35133675814392	-14.844862023360998	0.0	6.23699988043867	3	1.0243152782794704	47.20671815920061	132.0	1	1.1	0.9				
	1132	1	0.0	0.0	0.0	8.938981215453241	3	1.0411155797921063	47.88345941965706	132.0	1	1.1	0.9				
	1133	1	0.0	0.0	0.0	0.0	3	1.0380696706573038	47.96471215694572	132.0	1	1.1	0.9				
	1134	1	1.34802927457504	-7.41469687042199	0.0	2.586490340711079	3	1.0378823861122901	55.49975829364256	132.0	1	1.1	0.9				
	1135	1	0.0	0.0	0.0	0.0	3	1.0204587689852875	56.12500273052832	132.0	1	1.1	0.9				
	1136	2	0.176659434401989	0.0	0.0	0.0	3	0.9978300000004909	45.65077272679396	11.0	1	1.1	0.9				
	1137	2	4.54275251405905	0.0	0.0	0.0	3	1.0006000000004565	48.233402538623736	11.0	1	1.1	0.9				
	1138	2	0.169302481564041	0.0	0.0	0.0	3	0.9718800000005282	41.36762943456467	11.0	1	1.1	0.9				
	1139	1	0.7257241182010621	-2.56847391403113	0.0	0.0	3	1.024845507915081	50.851095897916124	132.0	1	1.1	0.9				
	1140	1	0.0	0.0	0.0	0.0	3	1.0554057118290936	42.18882431900614	275.0	1	1.1	0.9				
	1141	1	1.92557989855413	-22.203619719165403	0.0	1.74747080751043	3	1.043836004750383	40.1581162854098	132.0	1	1.1	0.9				
	1142	1	2.783507180151714	-14.38635413850714	0.0	0.0	3	1.0396253659207684	43.43706555155963	132.0	1	1.1	0.9				
	1143	1	0.0	0.0	0.0	0.0	3	1.0327713934812766	40.07547337530465	132.0	1	1.1	0.9				
	1144	1	9.343474606749409	-12.0552097676729	0.0	-3.7005941644907003	3	1.035239950267174	39.61366097543534	132.0	1	1.1	0.9				
	1145	1	11.48143100589393	2.2075569995827458	0.0	0.0	3	1.0369765320916189	17.42642940146593	110.0	1	1.1	0.9				
	1146	1	0.0	0.0	0.0	0.0	3	1.0262213506795175	39.581106961689294	132.0	1	1.1	0.9				
	1147	1	0.0	0.0	0.0	0.0	3	1.033296799727516	39.986417214052636	132.0	1	1.1	0.9				
	1148	1	2.5342752929753605	-18.7195328405197	0.0	0.0	3	1.0340082694967525	39.96026665911969	132.0	1	1.1	0.9				
	1149	1	0.0	0.0	0.0	0.0	3	1.0304183972209582	44.25357690062978	132.0	1	1.1	0.9				
	1150	1	1.5532976658708	-15.693653757575898	0.0	0.0	3	1.0356975903421433	44.05889255822221	132.0	1	1.1	0.9				
	1151	1	0.0951937989192083	-6.814040370354431	0.0	-0.8002068692017351	3	1.0378213584687153	39.2418754664626	132.0	1	1.1	0.9				
	1152	1	3.49248374232836	1.0473580844592298	0.0	0.0	3	1.0494891637812092	30.017465658120365	110.0	1	1.1	0.9				
	1153	1	21.888100493378897	9.40893772218851	0.0	0.0	3	1.0444401049917091	29.686189425591177	110.0	1	1.1	0.9				
	1154	1	0.0	0.0	0.0	20.174160785973104	3	1.0322370951523288	39.1058678952789	132.0	1	1.1	0.9				
	1155	1	0.19611612309236082	0.16626221270877825	0.0	0.0	3	1.0398419009130526	32.96615278857657	132.0	1	1.1	0.9				
	1156	1	0.20641770398709902	-1.2159039770923492	0.0	0.0	3	1.0301465215291183	28.882930907578114	132.0	1	1.1	0.9				
	1157	1	0.0	0.0	0.0	0.0	3	1.0137194050184843	55.6608936395423	132.0	1	1.1	0.9				
	1158	1	33.658736857120694	11.636886774293	0.0	0.0	3	1.0185805191102462	53.523739380717146	66.0	1	1.1	0.9				
	1159	1	0.182544517193129	1.2962265603502299	0.0	0.0	3	1.0493043490167104	16.52123006380583	110.0	1	1.1	0.9				
	1160	1	19.15264023672161	3.1950424376910096	0.0	0.0	3	1.0165011284835281	9.327616932274157	11.0	1	1.1	0.9				
	1161	1	17.524457348929808	3.01862131888792	0.0	0.0	3	1.0170009051871398	9.509135649923381	11.0	1	1.1	0.9				
	1162	1	0.0	0.0	0.0	0.0	3	1.0190141283694376	27.853461293444866	132.0	1	1.1	0.9				
	1163	1	0.0	0.0	0.0	0.0	3	1.0190414583828356	27.89785505246974	132.0	1	1.1	0.9				
	1164	1	0.0	0.0	0.0	0.0	3	1.0210811674287212	29.427329751991333	132.0	1	1.1	0.9				
	1165	1	23.9166722361866	0.453496168584423	0.0	0.0	3	1.0166428725351966	25.888556504587285	22.0	1	1.1	0.9				
	1166	1	0.0	0.0	0.0	0.0	3	1.0333614565266513	54.56549133505011	132.0	1	1.1	0.9				
	1167	1	0.0	0.0	0.0	0.0	3	1.0351894954785335	54.79028145317342	132.0	1	1.1	0.9				
	1168	1	34.9562463221899	8.25452116908095	0.0	0.0	3	1.0366074069236542	53.56566952701362	66.0	1	1.1	0.9				
	1169	1	0.0	0.0	0.0	0.0	3	1.0243477716771097	35.559993279687326	132.0	1	1.1	0.9				
	1170	1	22.879167634881796	1.7685788617710598	0.0	0.0	3	0.9844970661784819	34.20158247185628	66.0	1	1.1	0.9				
	1171	1	0.0	0.0	0.0	0.0	3	1.0274725882488815	33.0735441238728	132.0	1	1.1	0.9				
	1172	1	0.0	0.0	0.0	0.0	3	1.0257892470611059	35.949332250542064	132.0	1	1.1	0.9				
	1173	1	2.28789075901932	0.458745499039627	0.0	0.0	3	1.0388589929933432	32.699418568809186	22.0	1	1.1	0.9				
	1174	1	0.0	0.0	0.0	0.0	3	1.0441060749780509	22.76305636130131	110.0	1	1.1	0.9				
	1175	1	80.19088167204329	32.1475637420714	0.0	19.289397814664998	3	0.9965668928274831	20.247687417797717	33.0	1	1.1	0.9				
	1176	1	6.6942436916975305	8.05902804560214	0.0	0.0	3	1.0142513780427618	38.72342007964649	132.0	1	1.1	0.9				
	1177	1	0.0	0.0	0.0	0.0	3	1.0154959416843998	38.73955226773121	132.0	1	1.1	0.9				
	1178	1	0.0	0.0	0.0	0.0	3	1.0260909991475256	41.04859737486901	132.0	1	1.1	0.9				
	1179	1	0.0	0.0	0.0	0.0	3	1.052401024766691	41.04859737486901	22.0	1	1.1	0.9				
...
];

%% generator data
%    bus    Pg    Qg    Qmax    Qmin    Vg    mBase    status    Pmax    Pmin    Pc1    Pc2    Qc1min    Qc1max    Qc2min    Qc2max    ramp_agc    ramp_10    ramp_30    ramp_q    apf
mpc.gen = [
	1136	38.15006813653801	-2.7479717325347255	29.551508558390204	-18.611840673303202	0.99783	56.4829927750938	1	56.4829927750938	0.0															
	1137	54.78896249383889	-0.39250132246036046	39.445308756288	-19.5410217327923	1.0006	70.4010887629353	1	70.40108876293529	0.0															
	1138	37.3852416237806	-2.8556206625632155	40.15900753426829	-19.6813599202316	0.97188	55.8495727342218	1	55.84957273422181	0.0															
	1246	158.62248344307702	11.09722435223328	18.392053976052104	-16.042929740308303	1.05379	240.12185123283402	1	240.12185123283402	0.0															
	1274	672.011629407089	1.2609182771782765	380.783861394891	-210.94318277375703	1.07483	989.914190588519	1	989.914190588519	0.0															
	1279	32.325133014311604	3.756381499350031	16.0382952337386	-16.4131069646683	1.00241	47.830978430458394	1	47.8309784304584	0.0															
	1394	233.79768106916902	10.683300070292209	143.431122585477	-39.163123445623704	1.00238	327.941066311374	1	327.941066311374	0.0															
	1395	228.99522333410803	16.092816025694216	143.201212325564	-47.780816282485	1.01725	328.221132472344	1	328.221132472344	0.0															
	1396	181.826398928217	-1.7293566169058998	146.550946039439	-60.67034603693061	1.0801	333.52684475354897	1	333.52684475354897	0.0															
	1397	193.42773506570302	18.466881589643585	142.575249858822	-54.823367158656175	1.07699	335.174992911071	1	335.174992911071	0.0															
	1398	143.62341807961803	6.864450597518154	145.38803615633898	-82.9223262770218	1.01396	323.952838555873	1	323.952838555873	0.0															
	1399	252.81525112172497	16.906728940147573	143.540259748406	-71.6828966359228	1.01738	321.767278076075	1	321.767278076075	0.0															
	1400	339.36660236744706	4.093127454716998	179.94293623510703	-91.5745576726452	1.01525	422.530060780491	1	422.530060780491	0.0															
	1401	328.650323317071	-5.860343855583163	181.872876888374	-92.37304145073789	1.01123	422.44099449906497	1	422.44099449906497	0.0															
	1402	333.605957972587	-5.004825993386981	180.996407369385	-89.7215593289731	1.01182	416.57544194585597	1	416.575441945856	0.0															
	1403	352.540245030636	25.979255883048342	186.845473877853	-92.679939084734	1.01054	411.61222137440905	1	411.61222137440905	0.0															
	1407	291.08311794626997	-5.923793451572052	181.356975155417	-106.22686386341198	1.01726	428.869098612061	1	428.86909861206107	0.0															
	1408	337.08405474398	-2.9112840655553747	180.78299891413198	-108.68359219981403	1.01886	413.432336428249	1	413.4323364282491	0.0															
	1411	97.7013988349731	1.7878297030704777	64.7134504035086	-44.0059625754378	1.01934	158.354711054701	1	158.354711054701	0.0															
	1412	99.9689406776247	-0.7297731593938261	65.64046649780418	-42.9160134657559	1.01637	157.83937821052	1	157.83937821052	0.0															
	1413	107.51995301137498	-7.424856103563529	65.64034041714612	-43.1443078425118	1.009	153.609530652668	1	153.609530652668	0.0															
	1414	254.35082605878102	126.97003432973774	154.606299471656	-84.20062501158378	1.06955	375.605614145869	1	375.605614145869	0.0															
	1415	133.617273394639	-0.6739396142099467	84.25352713164	-55.42836806419389	0.96738	209.356691142824	1	209.356691142824	0.0															
	1416	167.280394055444	1.904115379819392	88.2031193806911	-50.221432574884	0.96634	205.18749745981802	1	205.18749745981802	0.0															
	1419	392.37162271625607	15.423149151985422	222.01578129639395	-113.626588569721	0.98831	628.052562262723	1	628.052562262723	0.0															
	1420	389.17365927410503	14.254333970974542	217.955337709421	-111.29210267448799	0.98849	638.170104924729	1	638.170104924729	0.0															
	1421	446.095845639464	31.562598600277802	250.306133095035	-208.67307585587298	0.97748	671.132690536673	1	671.132690536673	0.0															
	1425	0.0	0.05200503501529723	16.0670477952808	-12.9236320733093	1.01974	35.3824854665436	1	35.3824854665436	0.0															
	1426	26.060170449972205	-0.1192089463516349	16.3157659617718	-12.985960817523301	1.02374	35.1063570457092	1	35.1063570457092	0.0															
	1429	0.0	2.1626173522724423	10.6199372978881	-9.51195531778503	0.94245	24.0841503046104	1	24.084150304610404	0.0															
	1430	18.586411690213502	1.62575326943659	10.633135869633401	-9.455394026055	0.9398	24.7130107383127	1	24.713010738312697	0.0															
	1431	18.792232497129604	1.960136208839464	10.8258061378729	-9.5922543202294	0.94267	23.6974350718665	1	23.6974350718665	0.0															
	1432	0.0	0.37078045829491413	10.7970963336993	-9.78402039622888	0.93537	24.5818638734054	1	24.5818638734054	0.0															
	1433	0.0958614002307877	0.749298297325431	4.266772488225249	-3.2803044238127796	1.01518	8.7651425538864	1	8.7651425538864	0.0															
	1437	149.13769483177	-12.815790510133459	83.36840408742428	-65.56275631114842	1.00347	195.96899449389898	1	195.96899449389898	0.0															
	1438	78.57012764308452	6.376083441921421	49.8400348263651	-37.966390578057194	0.92011	105.795435098372	1	105.79543509837201	0.0															
	1439	122.659723240664	-4.99489715851271	75.6813709978014	-43.56289429795	1.00491	189.74077837402	1	189.74077837402	0.0															
	1441	28.5315465193212	-6.111001100573074	12.835821223910898	-12.6212911846116	0.99805	34.7002429670887	1	34.7002429670887	0.0															
	1499	151.481625780188	-4.729589587377761	88.3334718709364	-52.1606564629599	0.98699	223.21536341426	1	223.21536341426	0.0															
	1500	162.32070663892702	-9.750799293592575	93.6771039300419	-49.8093723358709	0.98381	230.990713269683	1	230.99071326968303	0.0															
	1501	134.162182604531	8.454117915904282	88.027697020471	-54.10118326286331	0.99662	225.23718779557402	1	225.23718779557402	0.0															
	1558	333.83098638962196	15.905569348889461	187.426987361648	-84.6002203775514	1.0065	416.378375744331	1	416.37837574433104	0.0															
	1559	331.572555586178	11.695472551235717	187.669186300988	-85.06820603642421	1.00423	426.8220308	1	426.8220308	0.0															
	1560	136.302122333584	-18.685973977779845	146.62290048844002	-123.132548622373	0.99478	423.626371387602	1	423.626371387602	0.0															
	1561	349.539415874761	8.396647479265058	184.270663669502	-85.19830188936011	1.00248	515.843401	1	515.843401	0.0															
	1628	367.584851894179	30.024314580372756	223.73748001349202	-178.142572029121	1.00366	579.8661901449091	1	579.866190144909	0.0															
	1629	364.29128839322004	36.95057669794949	220.58729005982204	-182.99704656265698	1.0051	566.034920721082	1	566.034920721082	0.0															
	211	0.0	15.898738001055552	19.45495178	-29.47467746	1.03756	1.0751540007	1	107.51540007	0.0															
	1091	0.0	-9.205359003206251	160.67606078228002	-84.7041328717023	1.03357	1.0500765809556503	1	105.00765809556502	0.0															
	1252	0.0	5.638374684030682	108.12727072741801	-73.59295353177	1.0337	1.0997547345701597	1	109.97547345701597	0.0															
	1253	0.0	-4.008810071085333	108.83970429888	-74.7765809793491	1.03192	1.0577576532261401	1	105.775765322614	0.0															
	1255	0.0	15.69110284297265	108.20594948250802	-75.1688969831448	1.03024	1.09717493208591	1	109.71749320859101	0.0															
	1265	0.0	-2.2803212283426877	106.655393834226	-107.41068248637	1.03123	1.07825675532222	1	107.825675532222	0.0															
	1498	0.0	16.10200684023679	159.93646228685998	-84.27141094207758	1.02355	1.0500391566660299	1	105.00391566660299	0.0															
	1517	0.0	42.95231555006017	369.777439194731	-107.00574084883601	1.06778	1.0614524376113004	1	106.14524376113003	0.0															
	1521	0.0	30.53741682171317	374.51390528236504	-105.621281582862	1.06488	1.0877079349942498	1	108.77079349942498	0.0															
	1532	0.0	-24.257597515386145	273.149341474753	-87.2412556875497	1.05366	1.08463595104404	1	108.46359510440399	0.0															
	1535	0.0	-11.82735291081407	160.063738203608	-86.0955149512738	1.03694	1.0608646189095496	1	106.08646189095496	0.0															
	1563	0.0	67.71887637971464	373.76034611370403	-105.452178842388	1.0712	1.06119855432771	1	106.119855432771	0.0															
	1565	0.0	-7.879893987721934	276.96128007909294	-79.8781298124231	1.05277	1.07012154776603	1	107.012154776603	0.0															
	1567	0.0	42.55623584385891	272.164989443263	-53.693837849423296	1.06834	1.0837470155907802	1	108.37470155907802	0.0															
	1622	0.0	-7.454419305486977	161.897330617067	-84.9892629329115	1.05336	1.0724761458113798	1	107.24761458113798	0.0															
];

%% branch data
%    f_bus    t_bus    r    x    b    rateA    rateB    rateC    ratio    angle    status    angmin    angmax
mpc.branch = [
	211	1447	0.030701083648665806	0.07543918535780157	0.008205477387676954	10000	10000	10000	0	0	1	-59.99999999999999	59.99999999999999	-76.49996968024415	14.05838259411416	78.22890520368158	-10.705188499450902				
	211	1447	0.03140418629638849	0.08142545084910925	0.007764268109877591	10000	10000	10000	0	0	1	-59.99999999999999	59.99999999999999	-71.63120865006897	11.798897749931125	73.1715540670857	-8.652096857972236				
	991	992	0.039082986010014996	0.055116996301216976	0.000749086190236732	10000	10000	10000	0	0	1	-59.99999999999999	59.99999999999999	7.960090769443731	3.6591332006718296	-7.933196401300904	-3.704707253138087				
	991	993	0.662590266091758	0.8712481873167996	0.00069982177603757	10000	10000	10000	0	0	1	-59.99999999999999	59.99999999999999	5.924012747958415	-2.589007218812738	-5.677902035979928	2.835288035176047				
	992	993	1.17680591755969	0.9342077812860947	0.011387176178842794	10000	10000	10000	0	0	1	-59.99999999999999	59.99999999999999	3.309714866770112	-3.5529519786471946	-3.1030321426657665	2.4645443269021676				
	996	1098	0.0320799596653027	0.08777157087743276	0.018526066608347495	10000	10000	10000	0	0	1	-59.99999999999999	59.99999999999999	56.40080735625891	-23.372710182366344	-55.28413774670414	24.462339839961547				
	996	1449	0.025159142369923202	0.06965216586907857	0.014893223235248096	10000	10000	10000	0	0	1	-59.99999999999999	59.99999999999999	-81.31409311436867	17.30989398601523	82.96443599531406	-14.330928688973582				
	997	1156	0.014690838203839995	0.04136911904144147	0.008781222240338098	10000	10000	10000	0	0	1	-59.99999999999999	59.99999999999999	46.886595379372906	-20.03715100370014	-46.52825704004396	20.115627957848737				
	997	1449	0.02562464132659281	0.06995414279806994	0.014949379874439	10000	10000	10000	0	0	1	-59.99999999999999	59.99999999999999	-72.61460623982514	14.360019173563959	73.94689481611346	-12.319172733172184				
	1001	1465	0.15461694826628997	0.1799213999336859	0.015045477073918997	10000	10000	10000	0	0	1	-59.99999999999999	59.99999999999999	-6.967862026179769	-2.792232490046673	7.04344303083074	1.242845845373039				
	1002	1465	0.138802608238533	0.1793163903230429	0.015568940100981902	10000	10000	10000	0	0	1	-59.99999999999999	59.99999999999999	-8.513692350618015	-10.240799235184141	8.728128241947205	8.846311663325315				
	1004	1006	0.00298397709695203	0.015821887245664395	0.0018952511628270105	10000	10000	10000	0	0	1	-59.99999999999999	59.99999999999999	42.96304512612921	9.869240861501147	-42.90869582184318	-9.782941766214357				
	1004	1292	0.0372333539637448	0.12684654733582895	0.013869576028140302	10000	10000	10000	0	0	1	-59.99999999999999	59.99999999999999	-27.627184839132408	2.003045147161328	27.89590150733961	-2.5791733422338843				
	1004	1609	0.034007737324748204	0.11577837264423296	0.011752202503927995	10000	10000	10000	0	0	1	-59.99999999999999	59.99999999999999	-15.335860286997388	-11.872286008667043	15.45101235422855	10.987458182380482				
	1005	1006	0.0030161586350854496	0.01689388210033439	0.001979132091579961	10000	10000	10000	0	0	1	-59.99999999999999	59.99999999999999	44.8507225119055	8.765244974997268	-44.79168929126763	-8.645400842073593				
	1005	1290	0.021481228611271795	0.07145989545064045	0.008034756490792152	10000	10000	10000	0	0	1	-59.99999999999999	59.99999999999999	-29.742834333651132	3.3400908205071924	29.923626851524705	-3.599914715286935				
	1005	1609	0.0348810121804178	0.113230795807176	0.011892341351202701	10000	10000	10000	0	0	1	-59.99999999999999	59.99999999999999	-15.107888178255358	-12.105335795506994	15.225406955142418	11.194755630627823				
	1008	1449	0.017134558214049796	0.04431110751995068	0.009857900274969635	10000	10000	10000	0	0	1	-59.99999999999999	59.99999999999999	4.55977239508037	-6.058079255200453	-4.551577615014819	5.019012444641489				
	1008	1449	0.017114923332887708	0.04440440611954219	0.009856536568298928	10000	10000	10000	0	0	1	-59.99999999999999	59.99999999999999	4.5581344140458375	-6.0437418753021745	-4.549976510310365	5.0047950468698446				
	1008	1607	0.055655704964381596	0.16136732815848695	0.031014980428833494	10000	10000	10000	0	0	1	-59.99999999999999	59.99999999999999	-16.323317172021437	8.457284908950275	16.514517105962714	-11.212591137414968				
	1010	1049	0.04137559159688649	0.07470332907316367	0.0145854709585523	10000	10000	10000	0	0	1	-59.99999999999999	59.99999999999999	-20.81414037750234	-2.7452372858162377	20.98933635385521	1.5406189076065502				
	1010	1049	0.0376511835474148	0.07561787106274627	0.0152007927798592	10000	10000	10000	0	0	1	-59.99999999999999	59.99999999999999	-20.93320904514781	-3.718782273495637	21.096139242427363	2.4609104362363423				
	1010	1096	0.06177664164697381	0.11717078621731404	0.02390778167087029	10000	10000	10000	0	0	1	-59.99999999999999	59.99999999999999	12.924454839647176	-6.1474601148975365	-12.810069227617321	3.9008283366188072				
	1010	1177	0.009939001650693826	0.019010038311806993	0.0038427877204692882	10000	10000	10000	0	0	1	-59.99999999999999	59.99999999999999	3.907158965940362	1.144009092244184	-3.9055160112109424	-1.5373943762171307				
	1011	1243	0.04904287741418	0.09495365270018391	0.019021623890207107	10000	10000	10000	0	0	1	-59.99999999999999	59.99999999999999	-4.2991137779166095	-6.687482816895014	4.322610550095575	4.7039189941143045				
	1011	1243	0.04896012289529669	0.09009775407090775	0.020026228219640004	10000	10000	10000	0	0	1	-59.99999999999999	59.99999999999999	-4.604055949548462	-6.885060348116155	4.62953582271796	4.795730142746833				
	1011	1471	0.07394365082833641	0.29990715619871894	0.0656428185934732	10000	10000	10000	0	0	1	-59.99999999999999	59.99999999999999	-3.619576185264771	4.699314335289491	3.6753862990449013	-11.28469925638011				
	1011	1472	0.06891654576006899	0.30223967669572677	0.06609045766394674	10000	10000	10000	0	0	1	-59.99999999999999	59.99999999999999	-3.699861960772524	4.496782616103117	3.7503784014592783	-11.134857007692816				
	1014	1058	0.0015112081695348007	0.004259333015277054	0.0008363327037952838	10000	10000	10000	0	0	1	-59.99999999999999	59.99999999999999	-16.329365110794868	3.7018493863988575	16.33327998041659	-3.7814401450410693				
	1015	1059	0.0015650093754976998	0.004209573686174579	0.0008799031233303245	10000	10000	10000	0	0	1	-59.99999999999999	59.99999999999999	-17.144118565931727	4.0592146284755355	17.14860859146497	-4.142461815672879				
	1021	1169	0.03330200055111571	0.09251268929232276	0.020107113199252607	10000	10000	10000	0	0	1	-59.99999999999999	59.99999999999999	24.922810894413637	-13.522107136442319	-24.67458196769723	12.109109590617873				
	1021	1169	0.034141180163352707	0.0919663281575628	0.01973792096993421	10000	10000	10000	0	0	1	-59.99999999999999	59.99999999999999	24.854521029175714	-13.77904526107564	-24.59886825452948	12.403729332670252				
	1021	1450	0.029144268726106693	0.11341811452499997	0.026382986444480706	10000	10000	10000	0	0	1	-59.99999999999999	59.99999999999999	-60.77903308848156	5.774254057684197	61.82646110937875	-4.4792517353702985				
	1021	1450	0.031160605165142612	0.11642189961294197	0.026129163735860994	10000	10000	10000	0	0	1	-59.99999999999999	59.99999999999999	-58.98333302669959	6.175052912694268	60.040622225853326	-4.979242690269237				
	1023	1231	0.0015507639203146103	0.00236885550515447	0.000497694928694051	10000	10000	10000	0	0	1	-59.99999999999999	59.99999999999999	-13.360165196850653	-9.2579571284914	13.364080164653751	9.211925111011853				
	1024	1198	0.004476026968909431	0.006971535528590898	0.0015356418693903793	10000	10000	10000	0	0	1	-59.99999999999999	59.99999999999999	-14.303905015647219	-9.848449240249693	14.31675623046806	9.707794378306858				
	1026	1036	0.01847791048147109	0.03450809779071808	0.006890176187932486	10000	10000	10000	0	0	1	-59.99999999999999	59.99999999999999	49.30137408352914	-21.264851510764913	-48.79676864992747	21.48487120458786				
	1026	1037	0.020708220542356798	0.0381667725978009	0.0409361975097656	10000	10000	10000	0	0	1	-59.99999999999999	59.99999999999999	17.805939113707932	-4.789436291018872	-17.742038800729883	0.6195123935768543				
	1026	1046	0.04802408723676951	0.17573335578499394	0.03953441745276379	10000	10000	10000	0	0	1	-59.99999999999999	59.99999999999999	51.12226887492544	-16.730099519242746	-49.82878519495279	17.28953974864401				
	1026	1199	0.06068034780547492	0.19690780765227991	0.044748991992214715	10000	10000	10000	0	0	1	-59.99999999999999	59.99999999999999	0.0032181270152194935	-4.709305982730692	2.8102520310824275e-14	1.7590096046404824e-13				
	1026	1200	0.057677582859126914	0.19454005206084596	0.045623477304366014	10000	10000	10000	0	0	1	-59.99999999999999	59.99999999999999	0.003179804826794041	-4.801413102825925	8.760353553682876e-15	5.644356509959536e-14				
	1026	1481	0.000292697851401754	0.0020087843570858197	0.0005695287904720752	10000	10000	10000	0	0	1	-59.99999999999999	59.99999999999999	-121.36394569104225	52.752466938137154	121.41276819913371	-52.477162223659256				
	1031	1456	0.021093327778722602	0.052054949639306396	0.011150821473183106	10000	10000	10000	0	0	1	-59.99999999999999	59.99999999999999	-30.61874523157216	-13.270939330201049	30.847191162054017	12.688481914290751				
	1032	1456	0.027642576890835095	0.05154420464191069	0.0102495599915856	10000	10000	10000	0	0	1	-59.99999999999999	59.99999999999999	-31.665290212383944	-12.059971152796013	31.975748266937686	11.586982479329645				
	1034	1211	0.004669318862795829	0.015432219003022194	0.001613828885894731	10000	10000	10000	0	0	1	-59.99999999999999	59.99999999999999	-28.39911767860884	28.679628246894428	28.468769480991092	-28.625718726323445				
	1034	1445	0.007736321725741957	0.025257654709656283	0.002811979905754329	10000	10000	10000	0	0	1	-59.99999999999999	59.99999999999999	-16.94844697387375	-22.798887946378787	17.004946381062254	22.673318641816653				
	1036	1038	0.002497172205396931	0.00455927065114304	0.0010002315431982304	10000	10000	10000	0	0	1	-59.99999999999999	59.99999999999999	6.537248900301447e-8	-0.10469289711310686	2.84857857787979e-13	-4.161574513814048e-13				
	1036	1040	0.0617601541569852	0.11855014189557705	0.02384629346138099	10000	10000	10000	0	0	1	-59.99999999999999	59.99999999999999	48.79676858455133	-21.38017830747765	-47.15262270912059	22.049480626324925				
	1040	1046	0.05266975447341102	0.10477609744294793	0.018749844859855196	10000	10000	10000	0	0	1	-59.99999999999999	59.99999999999999	-0.6575290581176375	-11.313181800845697	0.7119436269822067	9.452409702810307				
	1042	1320	0.03432879619047981	0.07044564889486407	0.012872229909896898	10000	10000	10000	0	0	1	-59.99999999999999	59.99999999999999	60.033252221977406	-7.171093958799352	-58.87414690980483	8.179052776651025				
	1042	1465	0.031042888074237895	0.06348160007296406	0.006167556372448801	10000	10000	10000	0	0	1	-59.99999999999999	59.99999999999999	-44.44421791900892	4.060296361823626	45.017636089867466	-3.5607242885259764				
	1042	1465	0.0102614711141102	0.07685326045548917	0.013676223582953206	10000	10000	10000	0	0	1	-59.99999999999999	59.99999999999999	-39.69078695552305	-9.762049456020819	39.84823295845345	9.448794001140762				
	1044	1349	0.0013142682798933194	0.004943872395176906	0.038483826154009394	10000	10000	10000	0	0	1	-59.99999999999999	59.99999999999999	47.163267525363565	6.13939885133908	-47.13552929190551	-10.210530881856867				
	1044	1383	0.0006488947630310431	0.0026929325072262405	0.019226253684703307	10000	10000	10000	0	0	1	-59.99999999999999	59.99999999999999	45.77176925683051	6.90131399552965	-45.75887414090931	-8.934824890735031				
	1044	1480	0.004621125718759369	0.02001740064266139	0.0701900533887763	10000	10000	10000	0	0	1	-59.99999999999999	59.99999999999999	-71.45093155153415	-9.676768955110937	71.66962867587118	2.9692145279677007				
	1044	1480	0.00502578327343427	0.020957491258487088	0.0688513271602727	10000	10000	10000	0	0	1	-59.99999999999999	59.99999999999999	-68.15472912682345	-8.751818648386738	68.3708525458398	2.1441648763170287				
	1046	1133	0.048961017399094996	0.17271062098860693	0.0387964333766606	10000	10000	10000	0	0	1	-59.99999999999999	59.99999999999999	27.785219263858572	-13.821325409356659	-27.3652772605961	11.15341463212807				
	1046	1254	0.0615253766053123	0.12334464406191696	0.023520609629701796	10000	10000	10000	0	0	1	-59.99999999999999	59.99999999999999	21.331622304112283	-12.92062404209742	-20.98887879990193	11.107025909169325				
	1047	1133	0.035509793886304784	0.12913589887528695	0.0297632750571892	10000	10000	10000	0	0	1	-59.99999999999999	59.99999999999999	-27.10437566340083	-1.464536241563158	27.351096117089906	-0.8154081078647069				
	1047	1214	0.03247771798772741	0.12132911204315798	0.025653499182569806	10000	10000	10000	0	0	1	-59.99999999999999	59.99999999999999	19.363540779089742	-7.249699047845265	-19.237706017742298	5.004258153842972				
	1047	1252	0.00877755205777288	0.024484662505369598	0.004358881940082179	10000	10000	10000	0	0	1	-59.99999999999999	59.99999999999999	0.139698997101724	-23.004940489336203	-0.09664055500667873	22.661720869759474				
	1047	1254	0.11177960276542198	0.21751241848491495	0.04086222313811259	10000	10000	10000	0	0	1	-59.99999999999999	59.99999999999999	-20.354958609878643	7.198191023838642	20.885545350467922	-10.501980957291348				
	1047	1466	0.04242106892688201	0.15812626246690695	0.033220318495985106	10000	10000	10000	0	0	1	-59.99999999999999	59.99999999999999	-11.569148998254668	4.39436696851538	11.638024159760334	-7.634980805105114				
	1047	1466	0.043069498534295717	0.16552926692364694	0.031921661774013205	10000	10000	10000	0	0	1	-59.99999999999999	59.99999999999999	-11.117971372647947	4.115873705329635	11.182039615919845	-7.23026943612121				
	1047	1466	0.0409610877723806	0.16579652542662793	0.0325186464476166	10000	10000	10000	0	0	1	-59.99999999999999	59.99999999999999	-11.20573679012199	3.9552541359889117	11.26685379720437	-7.131351914352563				
	1049	1146	0.010440489120292502	0.020918377411416708	0.004661195172686128	10000	10000	10000	0	0	1	-59.99999999999999	59.99999999999999	5.972242748801017e-6	-0.4908486717748772	7.509401087069101e-13	3.197203786442504e-13				
	1049	1147	0.04408821712199881	0.08275736586306516	0.01687049541714139	10000	10000	10000	0	0	1	-59.99999999999999	59.99999999999999	-10.68880848175872	-3.9974758268279675	10.740690489330877	2.305974641042008				
	1049	1151	0.08039250599004329	0.1585104823188019	0.032229289282155196	10000	10000	10000	0	0	1	-59.99999999999999	59.99999999999999	0.13931464415142883	-9.29774729627043	-0.09519379891918603	5.952159019412072				
	1049	1178	0.02273165998279679	0.08333478975068814	0.020241227156138505	10000	10000	10000	0	0	1	-59.99999999999999	59.99999999999999	-29.95856840831867	7.618754413830605	30.168595688340822	-8.98007977524947				
	1049	1244	0.015745784873515405	0.05897732068015729	0.014084887783913397	10000	10000	10000	0	0	1	-59.99999999999999	59.99999999999999	20.471265864853844	8.158491721410694	-20.396758080548178	-9.350784231416949				
	1049	1257	0.0368807245804928	0.06756055558631195	0.013676338747011496	10000	10000	10000	0	0	1	-59.99999999999999	59.99999999999999	-12.273879177793267	6.5578308356928625	12.345192677015115	-7.866894779290484				
	1049	1265	0.007003613443089181	0.024494154812632094	0.005588688559323548	10000	10000	10000	0	0	1	-59.99999999999999	59.99999999999999	-12.140134402433638	-18.01033652337775	12.170811322000546	17.52621214556679				
	1051	1147	0.054871032436381105	0.10129943460782499	0.019235859455312605	10000	10000	10000	0	0	1	-59.99999999999999	59.99999999999999	13.530081104372222	-18.063226995896436	-13.281779772796416	16.487339624434377				
	1051	1149	0.024229609959181404	0.09474553821758827	0.018290379673289104	10000	10000	10000	0	0	1	-59.99999999999999	59.99999999999999	-56.43646991416603	7.46181544391454	57.189679505140035	-6.445388709728158				
	1051	1257	0.05933402178001221	0.11318463964821994	0.023122959966938892	10000	10000	10000	0	0	1	-59.99999999999999	59.99999999999999	12.576367425909632	-9.837603452049946	-12.444610429699324	7.661311798483449				
	1053	1054	0.012454248260040802	0.024363330929145197	0.00471632601597812	10000	10000	10000	0	0	1	-59.99999999999999	59.99999999999999	-0.14815022380100865	2.5270314523329898	0.14906243780774056	-3.0224890481425017				
	1054	1080	0.03552971220016012	0.08540923021642029	0.016452968145716892	10000	10000	10000	0	0	1	-59.99999999999999	59.99999999999999	2.6007102993293407	-2.6751924674435235	-2.5973267283757884	0.948744508162449				
	1054	1241	0.03095234394217841	0.08024687774375637	0.015975392493330895	10000	10000	10000	0	0	1	-59.99999999999999	59.99999999999999	-2.7497727371382994	5.697681515585195	2.7645560854431026	-7.335593610344581				
	1055	1183	0.011901942466613807	0.0414621789717763	0.009965487304628836	10000	10000	10000	0	0	1	-59.99999999999999	59.99999999999999	-34.65106498707952	0.5730723176697052	34.78737388785923	-1.1478097251401989				
	1055	1183	0.010048289025202405	0.044347734283097094	0.009551582554355259	10000	10000	10000	0	0	1	-59.99999999999999	59.99999999999999	-32.87761905382738	-1.3266982442067907	32.981182259256705	0.7777742582333311				
	1058	1098	0.016934862659829207	0.048675081407565185	0.020953083468386407	10000	10000	10000	0	0	1	-59.99999999999999	59.99999999999999	-20.232717735379037	26.339747107517937	20.41465519665652	-28.066923449985666				
	1058	1453	0.008745490803832653	0.029207171156944208	0.006743738145371903	10000	10000	10000	0	0	1	-59.99999999999999	59.99999999999999	3.899437754962461	-22.558306962475655	-3.858463180348122	21.960184410307676				
	1059	1098	0.017418286694119198	0.04847567711204289	0.0103044195204601	10000	10000	10000	0	0	1	-59.99999999999999	59.99999999999999	-20.28464207410301	27.007326837001056	20.472952836647316	-27.589700972429466				
	1059	1453	0.009025728295291772	0.02908129705265159	0.00680583065354358	10000	10000	10000	0	0	1	-59.99999999999999	59.99999999999999	3.136033482638509	-22.864865021328136	-3.0930550616599524	22.261692275164187				
	1060	1216	0.0011270102556087099	0.005676342815676695	0.000692882133634761	10000	10000	10000	0	0	1	-59.99999999999999	59.99999999999999	-36.358269392989754	-9.374891246777942	36.372751184646106	9.371784143174558				
	1060	1217	0.0011186601040707891	0.005839201658659603	0.0006530809316616507	10000	10000	10000	0	0	1	-59.99999999999999	59.99999999999999	-37.79337555860568	-16.241326001758235	37.81062532192298	16.2596602424652				
	1062	1081	0.0016580021299445098	0.008204618788208074	0.00014672923622885702	10000	10000	10000	0	0	1	-59.99999999999999	59.99999999999999	-15.377255849035754	-4.404258283987396	15.38119014661432	4.4079014481591585				
	1062	1082	0.001721106927864251	0.008372752506140618	0.00014949688173132006	10000	10000	10000	0	0	1	-59.99999999999999	59.99999999999999	-16.32465376688775	-23.12217968116754	16.337439060884236	23.168228761054753				
	1062	1256	0.014086874750349697	0.026939163293316987	0.00040535680854320483	10000	10000	10000	0	0	1	-59.99999999999999	59.99999999999999	9.143405696950168	9.17357123572226	-9.12143047416879	-9.175089746776404				
	1062	1263	0.012390437537967198	0.01952477877540509	0.00029845514036714986	10000	10000	10000	0	0	1	-59.99999999999999	59.99999999999999	-4.476687305393	5.570478424713685	4.482578268523284	-5.593351433525471				
	1062	1378	0.012172535995133205	0.019360922156572296	0.00031097338662017113	10000	10000	10000	0	0	1	-59.99999999999999	59.99999999999999	1.2285487059690923	2.9406034574589803	-1.2273906407015887	-2.97226037619588				
	1063	1616	0.00512523189079203	0.009210323868013308	0.0019125219211727394	10000	10000	10000	0	0	1	-59.99999999999999	59.99999999999999	-22.784200649456118	1.381878298171886	22.80983108168177	-1.5353887340171914				
	1064	1616	0.005003781754568221	0.009839412712978654	0.0019377757394034392	10000	10000	10000	0	0	1	-59.99999999999999	59.99999999999999	-21.589705709546802	1.2037559999702143	21.61215751624398	-1.3618272058299699				
	1065	1171	0.0199603926991695	0.11066500833733896	0.021068487623440997	10000	10000	10000	0	0	1	-59.99999999999999	59.99999999999999	-20.03398214562731	1.6164177491431946	20.111453522043803	-3.408512310035482				
	1065	1222	0.010901602941397604	0.0547409973757211	0.011296400056180501	10000	10000	10000	0	0	1	-59.99999999999999	59.99999999999999	27.563755183908214	-0.9059628393313625	-27.485106193850363	0.11417640792720021				
	1065	1497	0.03148592768975771	0.22932751678322397	0.0856083323591836	10000	10000	10000	0	0	1	-59.99999999999999	59.99999999999999	18.007011660872834	-4.696103065150634	-17.910068377964457	-3.5766746588168274				
	1065	1502	0.041225725008978	0.2793658111141169	0.13259839174473698	10000	10000	10000	0	0	1	-59.99999999999999	59.99999999999999	-35.107722004072535	0.30017070862280104	35.61092522877803	-10.842730934619246				
	1068	1164	0.038001099530775115	0.19840580978009104	0.029207783298572505	10000	10000	10000	0	0	1	-59.99999999999999	59.99999999999999	2.8649309839449244	-3.655583498946243	-2.860237952004041	0.6441711049978671				
	1068	1222	0.0177594066909873	0.09358330555380318	0.017893038061695204	10000	10000	10000	0	0	1	-59.99999999999999	59.99999999999999	-24.13099806497675	-2.254683713800603	24.2310980921003	0.9176771700522939				
	1070	1497	0.0016806444139974206	0.0030627951519307697	0.0006474356770953158	10000	10000	10000	0	0	1	-59.99999999999999	59.99999999999999	-14.973784425627699	-3.081020504429603	14.97754432207735	3.020275616409322				
	1072	1076	0.0068557502175886215	0.0132157743563773	0.0025792644616691404	10000	10000	10000	0	0	1	-59.99999999999999	59.99999999999999	0.00010658223336115422	-0.31999909545771454	-0.00010430177416189887	0.051892144014655604				
	1072	1497	0.016955000473335403	0.031636461601485505	0.006951344088683838	10000	10000	10000	0	0	1	-59.99999999999999	59.99999999999999	-17.739648534965998	1.3796913548124539	17.79147381680018	-2.007278324561415				
	1073	1077	0.006965877436883751	0.012867705305074298	0.0026890523842610413	10000	10000	10000	0	0	1	-59.99999999999999	59.99999999999999	-24.898257730021463	1.976639789050917	24.93982379374807	-2.181638440164814				
	1073	1497	0.018718706401407298	0.036545954720918095	0.007368223036399109	10000	10000	10000	0	0	1	-59.99999999999999	59.99999999999999	6.315909869030456	-0.8763511022269095	-6.308730958810216	0.12008119280251979				
	1078	1207	0.0625316902116388	0.12728934316843293	0.025499836776256595	10000	10000	10000	0	0	1	-59.99999999999999	59.99999999999999	7.370816013233654	-5.551060658772252	-7.326401126362063	3.039882388415934				
	1078	1207	0.0667563403857844	0.12512973889645193	0.024911210242915004	10000	10000	10000	0	0	1	-59.99999999999999	59.99999999999999	7.224288838213775	-5.765116526329746	-7.176875800671743	3.3124534915510333				
	1078	1490	0.05345174131068208	0.22363736328897493	0.061955177296400085	10000	10000	10000	0	0	1	-59.99999999999999	59.99999999999999	-32.60172067764323	4.054282577534949	33.18632628632078	-7.949780923328185				
	1078	1490	0.05349104045378042	0.21807715715355994	0.05224195717491489	10000	10000	10000	0	0	1	-59.99999999999999	59.99999999999999	-33.340649237570894	4.92035234359634	33.954134334156144	-7.766477956031009				
	1080	1180	0.0030729564342564003	0.010924113591821395	0.00253761282619089	10000	10000	10000	0	0	1	-59.99999999999999	59.99999999999999	33.64530278866795	6.593033623686509	-33.61100863590984	-6.738364216669382				
	1080	1181	0.002911785565070809	0.011279526898845095	0.00247869265701156	10000	10000	10000	0	0	1	-59.99999999999999	59.99999999999999	32.58093094253281	6.4181333275523365	-32.550446381502645	-6.561102434673241				
	1080	1189	0.0010726812887079996	0.0050503668022099865	0.0011402921296125297	10000	10000	10000	0	0	1	-59.99999999999999	59.99999999999999	0.00010552639172420873	-0.12018310984459409	-0.0001054897376666418	-0.00010548974202132831				
	1080	1190	0.00106191429176927	0.004828037243206049	0.0011758281574957097	10000	10000	10000	0	0	1	-59.99999999999999	59.99999999999999	0.00010552831542093581	-0.12393177743242384	-0.00010548972797658489	-0.0001054897321434825				
	1080	1191	0.0027457404802921203	0.014020984462544295	0.0030191236327900503	10000	10000	10000	0	0	1	-59.99999999999999	59.99999999999999	10.685261605224563	7.366169533630844	-10.68081573769213	-7.661545029018717				
	1080	1241	0.06689093523517813	0.17017158401359295	0.035846971364426404	10000	10000	10000	0	0	1	-59.99999999999999	59.99999999999999	-2.5980040148452446	2.0917529087193034	2.61234096003553	-5.818809697834173				
	1080	1460	0.00668108986175503	0.036056446006401385	0.00899129443732928	10000	10000	10000	0	0	1	-59.99999999999999	59.99999999999999	-49.93127744120526	11.907328440872043	50.09888783670268	-11.95039108212189				
	1080	1460	0.0070136780941179	0.03319389394851402	0.008532867534909862	10000	10000	10000	0	0	1	-59.99999999999999	59.99999999999999	-53.617277719348586	14.278381298867288	53.822838855734446	-14.204820364266752				
	1083	1465	0.23109318876793097	0.25334587222283683	0.0233989811938209	10000	10000	10000	0	0	1	-59.99999999999999	59.99999999999999	-9.612783027512483	-0.03896109431756056	9.816754707112107	-2.271676152644206				
	1083	1465	0.06714649715125563	0.2325604913318529	0.023958479405902303	10000	10000	10000	0	0	1	-59.99999999999999	59.99999999999999	-12.967373422766315	-5.769099940021427	13.086312294987412	3.5861952341020067				
	1085	1607	0.0284987232697271	0.07149620659757408	0.016279008347943	10000	10000	10000	0	0	1	-59.99999999999999	59.99999999999999	-45.69253455076757	-5.42267644916056	46.27798574391607	5.192778037759075				
	1086	1607	0.0075295454894537105	0.050772298679208384	0.013197060671388202	10000	10000	10000	0	0	1	-59.99999999999999	59.99999999999999	-26.97774171123182	-8.27411019418066	27.03414018773358	7.262923958316855				
	1088	1456	0.01979995323019149	0.04970287708301137	0.011048851805169098	10000	10000	10000	0	0	1	-59.99999999999999	59.99999999999999	-22.55867719945279	0.7394832363603123	22.65651031186897	-1.6399794304367512				
	1090	1141	0.021773642413616207	0.0415300595364533	0.008258724933606573	10000	10000	10000	0	0	1	-59.99999999999999	59.99999999999999	2.0468349514403807	-24.76821566114754	-1.9255798985543318	24.107652735625994				
	1090	1183	0.0194417659125067	0.08419195600774136	0.01887395203519609	10000	10000	10000	0	0	1	-59.99999999999999	59.99999999999999	-12.340101380556176	9.764066711484455	12.388854276301483	-11.56033766380641				
	1090	1225	0.007576099841492247	0.02482601956120129	0.006400150077484549	10000	10000	10000	0	0	1	-59.99999999999999	59.99999999999999	11.208192683104325	1.8970188205844836	-11.19894420021156	-2.550732489769891				
	1090	1226	0.007417533708554689	0.025974696891993297	0.006720435797193089	10000	10000	10000	0	0	1	-59.99999999999999	59.99999999999999	10.6468259069071	1.756774397202672	-10.638658534364911	-2.4464686100284143				
	1090	1240	0.011414088102397498	0.02792871897464149	0.00673030182165233	10000	10000	10000	0	0	1	-59.99999999999999	59.99999999999999	1.8900547108956243	-8.236921146885031	-1.8830562095232448	7.53246026804026				
	1090	1457	0.046338730531562115	0.17745641675632295	0.03842593968730891	10000	10000	10000	0	0	1	-59.99999999999999	59.99999999999999	-31.792023783607153	9.381692855169822	32.28632730700714	-11.586422292769084				
	1093	1178	0.011989931400222703	0.045796175493476886	0.0105305295993076	10000	10000	10000	0	0	1	-59.99999999999999	59.99999999999999	30.282705844110865	-9.652585813011349	-30.168706443132816	8.979969020457467				
	1093	1457	0.02071399734341541	0.07920171738052738	0.018820212818863803	10000	10000	10000	0	0	1	-59.99999999999999	59.99999999999999	-43.78101232410045	4.275010302847772	44.16403890838493	-4.799953617760412				
	1096	1154	0.12073616490121902	0.22068323353870598	0.041438524228911804	10000	10000	10000	0	0	1	-59.99999999999999	59.99999999999999	-12.013876771108798	-3.764412946743679	12.186462084479851	-0.2585429661231091				
	1098	1515	0.0101699612787599	0.027057570700501094	0.0054949736595526315	10000	10000	10000	0	0	1	-59.99999999999999	59.99999999999999	-44.313085253166435	17.51266446328437	44.53106129522246	-17.517316142287246				
	1099	1102	0.3030379310825471	0.6217400208434564	0.12695848384473496	10000	10000	10000	0	0	1	-59.99999999999999	59.99999999999999	-4.50304336023974	-7.86274672555653	4.562530353382739	-6.019693135140818				
	1099	1466	0.057110149541320335	0.22282575811014496	0.046426588710998196	10000	10000	10000	0	0	1	-59.99999999999999	59.99999999999999	-7.789989435168801	7.430265590650961	7.874147272961521	-12.048625048123693				
	1105	1447	0.006947236374976109	0.04065819933134358	0.004889541474293922	10000	10000	10000	0	0	1	-59.99999999999999	59.99999999999999	21.522736974929096	-13.394940271734356	-21.482510105100044	13.09179649621177				
	1105	1606	0.0021355560819916394	0.012555749329328495	0.0014944461887106298	10000	10000	10000	0	0	1	-59.99999999999999	59.99999999999999	-57.541696460493654	-6.921115576546454	57.60702943072871	7.1408900084057745				
	1110	1270	0.0024616187197342492	0.004716037239097056	0.0005895901435799898	10000	10000	10000	0	0	1	-59.99999999999999	59.99999999999999	-19.375057581753214	9.087372966075849	19.384895069367776	-9.136185493142237				
	1110	1460	0.3639044275165001	0.6850134594532318	0.141234807817385	10000	10000	10000	0	0	1	-59.99999999999999	59.99999999999999	18.016041603307947	-9.523163807177786	-16.98034123021171	-4.066538952391757				
	1111	1320	0.036468897167802786	0.07237830692277025	0.00711775597340427	10000	10000	10000	0	0	1	-59.99999999999999	59.99999999999999	-39.15816837485478	14.381030778167661	39.771301984321	-13.908421622815473				
	1111	1442	0.047675801253735085	0.10645635552810498	0.00964604768491723	10000	10000	10000	0	0	1	-59.99999999999999	59.99999999999999	11.738598952880821	-24.824816765030555	-11.404708337123184	24.545722941060177				
	1113	1493	0.003883978425641079	0.012268790809691905	0.0012312350589782004	10000	10000	10000	0	0	1	-59.99999999999999	59.99999999999999	26.26999538514895	-33.06924463613279	-26.207688167520406	33.12913530989072				
	1113	1507	0.005123431993501728	0.017423477469071698	0.0017314813138320992	10000	10000	10000	0	0	1	-59.99999999999999	59.99999999999999	-40.13357213401308	30.29712110961454	40.25065317764445	-30.090436922624082				
	1116	1318	0.00800011759482091	0.01924892500309509	0.001957850208219611	10000	10000	10000	0	0	1	-59.99999999999999	59.99999999999999	41.54902268286685	22.585565022076825	-41.383062032604784	-22.396274859973463				
	1116	1606	0.009970985651364552	0.031181418718604383	0.0036225014685527398	10000	10000	10000	0	0	1	-59.99999999999999	59.99999999999999	-45.26853214266646	-19.692877184330058	45.49274390218629	19.99878791861751				
	1116	1606	0.009539563199536867	0.03152742421392858	0.00350860267714877	10000	10000	10000	0	0	1	-59.99999999999999	59.99999999999999	-44.68136857479328	-20.269867888579157	44.89325355099672	20.587308934214448				
	1119	1243	0.17487653678640688	0.33651949163418976	0.07003812896645208	10000	10000	10000	0	0	1	-59.99999999999999	59.99999999999999	-22.861438106057314	2.2316056908371045	23.81036690757145	-7.759247050862253				
	1119	1243	0.17366002690796606	0.32845578930326114	0.0709419859305373	10000	10000	10000	0	0	1	-59.99999999999999	59.99999999999999	-23.292845338877736	2.4716390704483002	24.274671857382806	-8.06323024405174				
...